<additional>
	<edgeData id="all" begin="0" end="3600" freq="20" file="output_normal.xml" />
</additional>